    3
jmolscript: load "" {1 1 1} spacegroup "x,y,z" unitcell [{      3.391933     0.000000     0.000000 }, {      0.000000     3.391933     0.000000 }, {      0.000000     0.000000     3.391933 }]
Li      0.000000     0.000000     0.000000     6.687148
Li      1.695970     1.695970     1.695970     6.687029
H       2.544000     0.000000     1.696000     6.503345
  
Same information as above printed with atom number.
   1 Li     0.000000     0.000000     0.000000     6.687148
   2 Li     1.695970     1.695970     1.695970     6.687029
   3 H      2.544000     0.000000     1.696000     6.503345
