    3
jmolscript: load "" {1 1 1} spacegroup "x,y,z" unitcell [{      3.003483     0.000000     0.000000 }, {      0.000000     3.519647     0.000000 }, {      0.000000     0.000000     3.521755 }]
Li      2.957675     0.000000     0.000014    19.904013
Li      1.547666     1.759830     1.760894    19.861744
H       2.252558     0.000000     1.760906    22.452380
  
Same information as above printed with atom number.
   1 Li     2.957675     0.000000     0.000014    19.904013
   2 Li     1.547666     1.759830     1.760894    19.861744
   3 H      2.252558     0.000000     1.760906    22.452380
